<?xml version="1.0"?>

<!-- generated on Mon Dec  8 17:23:01 2014 by SUMO netconvert Version 0.12.3
<?xml version="1.0" encoding="iso-8859-1"?>

<configuration xmlns:xsi="http://www.w3.org/2001/XMLSchema-instance" xsi:noNamespaceSchemaLocation="http://sumo.sf.net/xsd/netconvertConfiguration.xsd">

    <input>
        <xml-node-files value="/home/lijiax/project_exp/experiment.nod.xml"/>
        <xml-edge-files value="/home/lijiax/project_exp/experiment.edg.xml"/>
    </input>

    <output>
        <output-file value="/home/lijiax/project_exp/experiment.net.xml"/>
    </output>

    <processing>
        <speed-in-kmh value="false"/>
        <remove-geometry value="false"/>
        <remove-isolated value="false"/>
        <no-turnarounds value="false"/>
    </processing>

    <building_defaults>
        <type value="Unknown"/>
        <lanenumber value="2"/>
        <speed value="40"/>
        <priority value="75"/>
    </building_defaults>

    <report>
        <verbose value="true"/>
        <print-options value="false"/>
    </report>

</configuration>
-->

<net>

   <location netOffset="-100.00,-100.00" convBoundary="0.00,0.00,600.00,400.00" origBoundary="100.00,100.00,700.00,500.00" projParameter="!"/>

   <edge id=":n0_0" function="internal">
      <lanes>
         <lane id=":n0_0_0" depart="0" maxspeed="40.00" length="5.00" shape="295.05,208.05 294.86,206.69 294.27,205.73 293.31,205.14 291.95,204.95"/>
      </lanes>
   </edge>
   <edge id=":n0_1" function="internal">
      <lanes>
         <lane id=":n0_1_0" depart="0" maxspeed="40.00" length="16.10" shape="295.05,208.05 295.05,203.27 295.05,200.00 295.05,196.73 295.05,191.95"/>
      </lanes>
   </edge>
   <edge id=":n0_2" function="internal">
      <lanes>
         <lane id=":n0_2_0" depart="0" maxspeed="40.00" length="16.10" shape="298.35,208.05 298.35,203.27 298.35,200.00 298.35,196.73 298.35,191.95"/>
      </lanes>
   </edge>
   <edge id=":n0_3" function="internal">
      <lanes>
         <lane id=":n0_3_0" depart="0" maxspeed="40.00" length="8.84" shape="298.35,208.05 298.96,203.81 302.93,199.48"/>
      </lanes>
   </edge>
   <edge id=":n0_18" function="internal">
      <lanes>
         <lane id=":n0_18_0" depart="0" maxspeed="40.00" length="6.80" shape="302.93,199.48 303.81,198.96 308.05,198.35"/>
      </lanes>
   </edge>
   <edge id=":n0_4" function="internal">
      <lanes>
         <lane id=":n0_4_0" depart="0" maxspeed="40.00" length="0.10" shape="298.35,208.05 299.12,206.90"/>
      </lanes>
   </edge>
   <edge id=":n0_19" function="internal">
      <lanes>
         <lane id=":n0_19_0" depart="0" maxspeed="40.00" length="4.72" shape="299.12,206.90 299.17,206.81 300.00,206.40 300.82,206.81 301.65,208.05"/>
      </lanes>
   </edge>
   <edge id=":n0_5" function="internal">
      <lanes>
         <lane id=":n0_5_0" depart="0" maxspeed="40.00" length="5.00" shape="308.05,204.95 306.69,205.14 305.73,205.72 305.14,206.69 304.95,208.05"/>
      </lanes>
   </edge>
   <edge id=":n0_6" function="internal">
      <lanes>
         <lane id=":n0_6_0" depart="0" maxspeed="40.00" length="16.10" shape="308.05,201.65 303.27,201.65 300.00,201.65 296.73,201.65 291.95,201.65"/>
      </lanes>
   </edge>
   <edge id=":n0_7" function="internal">
      <lanes>
         <lane id=":n0_7_0" depart="0" maxspeed="40.00" length="3.13" shape="308.05,201.65 306.91,201.49"/>
      </lanes>
   </edge>
   <edge id=":n0_20" function="internal">
      <lanes>
         <lane id=":n0_20_0" depart="0" maxspeed="40.00" length="12.51" shape="306.91,201.49 303.81,201.04 300.77,199.23 298.96,196.19 298.35,191.95"/>
      </lanes>
   </edge>
   <edge id=":n0_8" function="internal">
      <lanes>
         <lane id=":n0_8_0" depart="0" maxspeed="40.00" length="0.10" shape="308.05,201.65 306.90,200.88"/>
      </lanes>
   </edge>
   <edge id=":n0_21" function="internal">
      <lanes>
         <lane id=":n0_21_0" depart="0" maxspeed="40.00" length="4.72" shape="306.90,200.88 306.81,200.83 306.40,200.00 306.81,199.18 308.05,198.35"/>
      </lanes>
   </edge>
   <edge id=":n0_9" function="internal">
      <lanes>
         <lane id=":n0_9_0" depart="0" maxspeed="40.00" length="5.00" shape="304.95,191.95 305.14,193.31 305.73,194.28 306.69,194.86 308.05,195.05"/>
      </lanes>
   </edge>
   <edge id=":n0_10" function="internal">
      <lanes>
         <lane id=":n0_10_0" depart="0" maxspeed="40.00" length="16.10" shape="304.95,191.95 304.95,196.73 304.95,200.00 304.95,203.27 304.95,208.05"/>
      </lanes>
   </edge>
   <edge id=":n0_11" function="internal">
      <lanes>
         <lane id=":n0_11_0" depart="0" maxspeed="40.00" length="16.10" shape="301.65,191.95 301.65,196.73 301.65,200.00 301.65,203.27 301.65,208.05"/>
      </lanes>
   </edge>
   <edge id=":n0_12" function="internal">
      <lanes>
         <lane id=":n0_12_0" depart="0" maxspeed="40.00" length="8.84" shape="301.65,191.95 301.04,196.19 297.07,200.52"/>
      </lanes>
   </edge>
   <edge id=":n0_22" function="internal">
      <lanes>
         <lane id=":n0_22_0" depart="0" maxspeed="40.00" length="6.80" shape="297.07,200.52 296.19,201.04 291.95,201.65"/>
      </lanes>
   </edge>
   <edge id=":n0_13" function="internal">
      <lanes>
         <lane id=":n0_13_0" depart="0" maxspeed="40.00" length="0.10" shape="301.65,191.95 300.88,193.10"/>
      </lanes>
   </edge>
   <edge id=":n0_23" function="internal">
      <lanes>
         <lane id=":n0_23_0" depart="0" maxspeed="40.00" length="4.72" shape="300.88,193.10 300.83,193.19 300.00,193.60 299.18,193.19 298.35,191.95"/>
      </lanes>
   </edge>
   <edge id=":n0_14" function="internal">
      <lanes>
         <lane id=":n0_14_0" depart="0" maxspeed="40.00" length="5.00" shape="291.95,195.05 293.31,194.86 294.27,194.28 294.86,193.31 295.05,191.95"/>
      </lanes>
   </edge>
   <edge id=":n0_15" function="internal">
      <lanes>
         <lane id=":n0_15_0" depart="0" maxspeed="40.00" length="16.10" shape="291.95,198.35 296.73,198.35 300.00,198.35 303.27,198.35 308.05,198.35"/>
      </lanes>
   </edge>
   <edge id=":n0_16" function="internal">
      <lanes>
         <lane id=":n0_16_0" depart="0" maxspeed="40.00" length="3.13" shape="291.95,198.35 293.09,198.51"/>
      </lanes>
   </edge>
   <edge id=":n0_24" function="internal">
      <lanes>
         <lane id=":n0_24_0" depart="0" maxspeed="40.00" length="12.51" shape="293.09,198.51 296.19,198.96 299.23,200.77 301.04,203.81 301.65,208.05"/>
      </lanes>
   </edge>
   <edge id=":n0_17" function="internal">
      <lanes>
         <lane id=":n0_17_0" depart="0" maxspeed="40.00" length="0.10" shape="291.95,198.35 293.10,199.12"/>
      </lanes>
   </edge>
   <edge id=":n0_25" function="internal">
      <lanes>
         <lane id=":n0_25_0" depart="0" maxspeed="40.00" length="4.72" shape="293.10,199.12 293.19,199.17 293.60,200.00 293.19,200.82 291.95,201.65"/>
      </lanes>
   </edge>
   <edge id=":n1_0" function="internal">
      <lanes>
         <lane id=":n1_0_0" depart="0" maxspeed="40.00" length="4.82" shape="0.00,201.65 -1.24,200.82 -1.65,200.00 -1.24,199.17 0.00,198.35"/>
      </lanes>
   </edge>
   <edge id=":n2_0" function="internal">
      <lanes>
         <lane id=":n2_0_0" depart="0" maxspeed="40.00" length="4.82" shape="298.35,0.00 299.18,-1.24 300.00,-1.65 300.83,-1.24 301.65,0.00"/>
      </lanes>
   </edge>
   <edge id=":n3_0" function="internal">
      <lanes>
         <lane id=":n3_0_0" depart="0" maxspeed="40.00" length="4.82" shape="600.00,198.35 601.24,199.17 601.65,200.00 601.24,200.82 600.00,201.65"/>
      </lanes>
   </edge>
   <edge id=":n4_0" function="internal">
      <lanes>
         <lane id=":n4_0_0" depart="0" maxspeed="40.00" length="4.82" shape="301.65,400.00 300.83,401.24 300.00,401.65 299.18,401.24 298.35,400.00"/>
      </lanes>
   </edge>

   <edge id="D20" from="n2" to="n0" priority="75" type="" function="normal">
      <lanes>
         <lane id="D20_0" depart="1" maxspeed="40.00" length="191.95" shape="304.95,0.00 304.95,191.95"/>
         <lane id="D20_1" depart="0" maxspeed="40.00" length="191.95" shape="301.65,0.00 301.65,191.95"/>
      </lanes>
   </edge>
   <edge id="D40" from="n0" to="n4" priority="75" type="" function="normal">
      <lanes>
         <lane id="D40_0" depart="1" maxspeed="40.00" length="191.95" shape="304.95,208.05 304.95,400.00"/>
         <lane id="D40_1" depart="0" maxspeed="40.00" length="191.95" shape="301.65,208.05 301.65,400.00"/>
      </lanes>
   </edge>
   <edge id="L10" from="n0" to="n1" priority="75" type="" function="normal">
      <lanes>
         <lane id="L10_0" depart="1" maxspeed="40.00" length="291.95" shape="291.95,204.95 0.00,204.95"/>
         <lane id="L10_1" depart="0" maxspeed="40.00" length="291.95" shape="291.95,201.65 0.00,201.65"/>
      </lanes>
   </edge>
   <edge id="L30" from="n0" to="n3" priority="75" type="" function="normal">
      <lanes>
         <lane id="L30_0" depart="1" maxspeed="40.00" length="291.95" shape="308.05,195.05 600.00,195.05"/>
         <lane id="L30_1" depart="0" maxspeed="40.00" length="291.95" shape="308.05,198.35 600.00,198.35"/>
      </lanes>
   </edge>
   <edge id="R10" from="n1" to="n0" priority="75" type="" function="normal">
      <lanes>
         <lane id="R10_0" depart="1" maxspeed="40.00" length="291.95" shape="0.00,195.05 291.95,195.05"/>
         <lane id="R10_1" depart="0" maxspeed="40.00" length="291.95" shape="0.00,198.35 291.95,198.35"/>
      </lanes>
   </edge>
   <edge id="R30" from="n3" to="n0" priority="75" type="" function="normal">
      <lanes>
         <lane id="R30_0" depart="1" maxspeed="40.00" length="291.95" shape="600.00,204.95 308.05,204.95"/>
         <lane id="R30_1" depart="0" maxspeed="40.00" length="291.95" shape="600.00,201.65 308.05,201.65"/>
      </lanes>
   </edge>
   <edge id="U20" from="n0" to="n2" priority="75" type="" function="normal">
      <lanes>
         <lane id="U20_0" depart="1" maxspeed="40.00" length="191.95" shape="295.05,191.95 295.05,0.00"/>
         <lane id="U20_1" depart="0" maxspeed="40.00" length="191.95" shape="298.35,191.95 298.35,0.00"/>
      </lanes>
   </edge>
   <edge id="U40" from="n4" to="n0" priority="75" type="" function="normal">
      <lanes>
         <lane id="U40_0" depart="1" maxspeed="40.00" length="191.95" shape="295.05,400.00 295.05,208.05"/>
         <lane id="U40_1" depart="0" maxspeed="40.00" length="191.95" shape="298.35,400.00 298.35,208.05"/>
      </lanes>
   </edge>

   <row-logic id="n0" requestSize="18" laneNumber="8">
      <logic>
         <logicitem request="0" response="000000000000000000" foes="100001000001000000" cont="0"/>
         <logicitem request="1" response="000000000000000000" foes="011111000011000000" cont="0"/>
         <logicitem request="2" response="000000000000000000" foes="011111000011000000" cont="0"/>
         <logicitem request="3" response="000000111000000000" foes="011000111111000000" cont="1"/>
         <logicitem request="4" response="010000110000100000" foes="010000110000100000" cont="1"/>
         <logicitem request="5" response="000000110000000000" foes="010000110000010000" cont="0"/>
         <logicitem request="6" response="000001110000001111" foes="110001110000001111" cont="0"/>
         <logicitem request="7" response="001101110000001110" foes="001111110000001110" cont="1"/>
         <logicitem request="8" response="001000001000001000" foes="001000001000001000" cont="1"/>
         <logicitem request="9" response="000000000000000000" foes="001000000100001000" cont="0"/>
         <logicitem request="10" response="000000000000000000" foes="011000000011111000" cont="0"/>
         <logicitem request="11" response="000000000000000000" foes="011000000011111000" cont="0"/>
         <logicitem request="12" response="000000000000000111" foes="111000000011000111" cont="1"/>
         <logicitem request="13" response="000100000010000110" foes="000100000010000110" cont="1"/>
         <logicitem request="14" response="000000000000000110" foes="000010000010000110" cont="0"/>
         <logicitem request="15" response="000001111000001110" foes="000001111110001110" cont="0"/>
         <logicitem request="16" response="000001110001101110" foes="000001110001111110" cont="1"/>
         <logicitem request="17" response="000001000001000001" foes="000001000001000001" cont="1"/>
      </logic>
   </row-logic>
   <row-logic id="n1" requestSize="2" laneNumber="2">
      <logic>
         <logicitem request="0" response="11" foes="00" cont="0"/>
         <logicitem request="1" response="00" foes="00" cont="0"/>
      </logic>
   </row-logic>
   <row-logic id="n2" requestSize="2" laneNumber="2">
      <logic>
         <logicitem request="0" response="11" foes="00" cont="0"/>
         <logicitem request="1" response="00" foes="00" cont="0"/>
      </logic>
   </row-logic>
   <row-logic id="n3" requestSize="2" laneNumber="2">
      <logic>
         <logicitem request="0" response="11" foes="00" cont="0"/>
         <logicitem request="1" response="00" foes="00" cont="0"/>
      </logic>
   </row-logic>
   <row-logic id="n4" requestSize="2" laneNumber="2">
      <logic>
         <logicitem request="0" response="11" foes="00" cont="0"/>
         <logicitem request="1" response="00" foes="00" cont="0"/>
      </logic>
   </row-logic>

   <tl-logic id="n0" type="static" programID="0" offset="0">
      <phase duration="31" state="GGGggrrrrGGGggrrrr"/>
      <phase duration="13" state="yyyggrrrryyyggrrrr"/>
      <phase duration="6" state="rrrGGrrrrrrrGGrrrr"/>
      <phase duration="13" state="rrryyrrrrrrryyrrrr"/>
      <phase duration="31" state="rrrrrGGggrrrrrGGgg"/>
      <phase duration="13" state="rrrrryyggrrrrryygg"/>
      <phase duration="6" state="rrrrrrrGGrrrrrrrGG"/>
      <phase duration="13" state="rrrrrrryyrrrrrrryy"/>
   </tl-logic>

   <junction id="n0" type="priority" x="300.00" y="200.00" incLanes="U40_0 U40_1 R30_0 R30_1 D20_0 D20_1 R10_0 R10_1" intLanes=":n0_0_0 :n0_1_0 :n0_2_0 :n0_18_0 :n0_19_0 :n0_5_0 :n0_6_0 :n0_20_0 :n0_21_0 :n0_9_0 :n0_10_0 :n0_11_0 :n0_22_0 :n0_23_0 :n0_14_0 :n0_15_0 :n0_24_0 :n0_25_0" shape="293.45,208.05 306.55,208.05 308.05,206.55 308.05,193.45 306.55,191.95 293.45,191.95 291.95,193.45 291.95,206.55"/>
   <junction id="n1" type="priority" x="0.00" y="200.00" incLanes="L10_0 L10_1" intLanes=":n1_0_0" shape="0.00,199.95 0.00,193.45 -0.00,206.55 -0.00,200.05"/>
   <junction id="n2" type="priority" x="300.00" y="0.00" incLanes="U20_0 U20_1" intLanes=":n2_0_0" shape="300.05,0.00 306.55,0.00 293.45,-0.00 299.95,-0.00"/>
   <junction id="n3" type="priority" x="600.00" y="200.00" incLanes="L30_0 L30_1" intLanes=":n3_0_0" shape="600.00,200.05 600.00,206.55 600.00,193.45 600.00,199.95"/>
   <junction id="n4" type="priority" x="300.00" y="400.00" incLanes="D40_0 D40_1" intLanes=":n4_0_0" shape="299.95,400.00 293.45,400.00 306.55,400.00 300.05,400.00"/>

   <junction id=":n0_18_0" type="internal" x="301.65" y="200.25" incLanes=":n0_3_0 D20_0 D20_1" intLanes=":n0_9_0 :n0_10_0 :n0_11_0" shape=""/>
   <junction id=":n0_19_0" type="internal" x="298.41" y="207.97" incLanes=":n0_4_0 D20_0 D20_1" intLanes=":n0_10_0 :n0_11_0" shape=""/>
   <junction id=":n0_20_0" type="internal" x="304.95" y="201.21" incLanes=":n0_7_0 R10_0 R10_1" intLanes=":n0_14_0 :n0_15_0" shape=""/>
   <junction id=":n0_21_0" type="internal" x="307.97" y="201.59" incLanes=":n0_8_0 R10_1" intLanes=":n0_15_0" shape=""/>
   <junction id=":n0_22_0" type="internal" x="298.35" y="199.75" incLanes=":n0_12_0 U40_0 U40_1" intLanes=":n0_0_0 :n0_1_0 :n0_2_0" shape=""/>
   <junction id=":n0_23_0" type="internal" x="301.59" y="192.03" incLanes=":n0_13_0 U40_0 U40_1" intLanes=":n0_1_0 :n0_2_0" shape=""/>
   <junction id=":n0_24_0" type="internal" x="295.05" y="198.79" incLanes=":n0_16_0 R30_0 R30_1" intLanes=":n0_5_0 :n0_6_0" shape=""/>
   <junction id=":n0_25_0" type="internal" x="292.03" y="198.41" incLanes=":n0_17_0 R30_1" intLanes=":n0_6_0" shape=""/>

   <succ edge="D20" lane="D20_0" junction="n0">
      <succlane lane="L30_0" via=":n0_9_0" tl="n0" linkno="9" yield="1" dir="r" state="t"/>
      <succlane lane="D40_0" via=":n0_10_0" tl="n0" linkno="10" yield="1" dir="s" state="t"/>
   </succ>
   <succ edge="D20" lane="D20_1" junction="n0">
      <succlane lane="D40_1" via=":n0_11_0" tl="n0" linkno="11" yield="1" dir="s" state="t"/>
      <succlane lane="L10_1" via=":n0_12_0" tl="n0" linkno="12" yield="1" dir="l" state="t" int_end="x"/>
      <succlane lane="U20_1" via=":n0_13_0" tl="n0" linkno="13" yield="1" dir="t" state="t" int_end="x"/>
   </succ>
   <succ edge="D40" lane="D40_0" junction="n4">
      <succlane lane="SUMO_NO_DESTINATION" yield="1" dir="s" state="O"/>
   </succ>
   <succ edge="D40" lane="D40_1" junction="n4">
      <succlane lane="U40_1" via=":n4_0_0" yield="0" dir="t" state="M"/>
   </succ>
   <succ edge="L10" lane="L10_0" junction="n1">
      <succlane lane="SUMO_NO_DESTINATION" yield="1" dir="s" state="O"/>
   </succ>
   <succ edge="L10" lane="L10_1" junction="n1">
      <succlane lane="R10_1" via=":n1_0_0" yield="0" dir="t" state="M"/>
   </succ>
   <succ edge="L30" lane="L30_0" junction="n3">
      <succlane lane="SUMO_NO_DESTINATION" yield="1" dir="s" state="O"/>
   </succ>
   <succ edge="L30" lane="L30_1" junction="n3">
      <succlane lane="R30_1" via=":n3_0_0" yield="0" dir="t" state="M"/>
   </succ>
   <succ edge="R10" lane="R10_0" junction="n0">
      <succlane lane="U20_0" via=":n0_14_0" tl="n0" linkno="14" yield="1" dir="r" state="t"/>
   </succ>
   <succ edge="R10" lane="R10_1" junction="n0">
      <succlane lane="L30_1" via=":n0_15_0" tl="n0" linkno="15" yield="1" dir="s" state="t"/>
      <succlane lane="D40_1" via=":n0_16_0" tl="n0" linkno="16" yield="1" dir="l" state="t" int_end="x"/>
      <succlane lane="L10_1" via=":n0_17_0" tl="n0" linkno="17" yield="1" dir="t" state="t" int_end="x"/>
   </succ>
   <succ edge="R30" lane="R30_0" junction="n0">
      <succlane lane="D40_0" via=":n0_5_0" tl="n0" linkno="5" yield="1" dir="r" state="t"/>
   </succ>
   <succ edge="R30" lane="R30_1" junction="n0">
      <succlane lane="L10_1" via=":n0_6_0" tl="n0" linkno="6" yield="1" dir="s" state="t"/>
      <succlane lane="U20_1" via=":n0_7_0" tl="n0" linkno="7" yield="1" dir="l" state="t" int_end="x"/>
      <succlane lane="L30_1" via=":n0_8_0" tl="n0" linkno="8" yield="1" dir="t" state="t" int_end="x"/>
   </succ>
   <succ edge="U20" lane="U20_0" junction="n2">
      <succlane lane="SUMO_NO_DESTINATION" yield="1" dir="s" state="O"/>
   </succ>
   <succ edge="U20" lane="U20_1" junction="n2">
      <succlane lane="D20_1" via=":n2_0_0" yield="0" dir="t" state="M"/>
   </succ>
   <succ edge="U40" lane="U40_0" junction="n0">
      <succlane lane="L10_0" via=":n0_0_0" tl="n0" linkno="0" yield="1" dir="r" state="t"/>
      <succlane lane="U20_0" via=":n0_1_0" tl="n0" linkno="1" yield="1" dir="s" state="t"/>
   </succ>
   <succ edge="U40" lane="U40_1" junction="n0">
      <succlane lane="U20_1" via=":n0_2_0" tl="n0" linkno="2" yield="1" dir="s" state="t"/>
      <succlane lane="L30_1" via=":n0_3_0" tl="n0" linkno="3" yield="1" dir="l" state="t" int_end="x"/>
      <succlane lane="D40_1" via=":n0_4_0" tl="n0" linkno="4" yield="1" dir="t" state="t" int_end="x"/>
   </succ>

   <succ edge=":n0_0" lane=":n0_0_0" junction="n0">
      <succlane lane="L10_0" tl="" linkno="" yield="0" dir="s" state="M"/>
   </succ>
   <succ edge=":n0_1" lane=":n0_1_0" junction="n0">
      <succlane lane="U20_0" tl="" linkno="" yield="0" dir="s" state="M"/>
   </succ>
   <succ edge=":n0_2" lane=":n0_2_0" junction="n0">
      <succlane lane="U20_1" tl="" linkno="" yield="0" dir="s" state="M"/>
   </succ>
   <succ edge=":n0_3" lane=":n0_3_0" junction="n0">
      <succlane lane="L30_1" via=":n0_18_0" tl="" linkno="" yield="1" dir="s" state="M"/>
   </succ>
   <succ edge=":n0_18" lane=":n0_18_0" junction=":n0_18">
      <succlane lane="L30_1" tl="" linkno="0" yield="0" dir="s" state="M"/>
   </succ>
   <succ edge=":n0_4" lane=":n0_4_0" junction="n0">
      <succlane lane="D40_1" via=":n0_19_0" tl="" linkno="" yield="1" dir="s" state="M"/>
   </succ>
   <succ edge=":n0_19" lane=":n0_19_0" junction=":n0_19">
      <succlane lane="D40_1" tl="" linkno="0" yield="0" dir="s" state="M"/>
   </succ>
   <succ edge=":n0_5" lane=":n0_5_0" junction="n0">
      <succlane lane="D40_0" tl="" linkno="" yield="0" dir="s" state="M"/>
   </succ>
   <succ edge=":n0_6" lane=":n0_6_0" junction="n0">
      <succlane lane="L10_1" tl="" linkno="" yield="0" dir="s" state="M"/>
   </succ>
   <succ edge=":n0_7" lane=":n0_7_0" junction="n0">
      <succlane lane="U20_1" via=":n0_20_0" tl="" linkno="" yield="1" dir="s" state="M"/>
   </succ>
   <succ edge=":n0_20" lane=":n0_20_0" junction=":n0_20">
      <succlane lane="U20_1" tl="" linkno="0" yield="0" dir="s" state="M"/>
   </succ>
   <succ edge=":n0_8" lane=":n0_8_0" junction="n0">
      <succlane lane="L30_1" via=":n0_21_0" tl="" linkno="" yield="1" dir="s" state="M"/>
   </succ>
   <succ edge=":n0_21" lane=":n0_21_0" junction=":n0_21">
      <succlane lane="L30_1" tl="" linkno="0" yield="0" dir="s" state="M"/>
   </succ>
   <succ edge=":n0_9" lane=":n0_9_0" junction="n0">
      <succlane lane="L30_0" tl="" linkno="" yield="0" dir="s" state="M"/>
   </succ>
   <succ edge=":n0_10" lane=":n0_10_0" junction="n0">
      <succlane lane="D40_0" tl="" linkno="" yield="0" dir="s" state="M"/>
   </succ>
   <succ edge=":n0_11" lane=":n0_11_0" junction="n0">
      <succlane lane="D40_1" tl="" linkno="" yield="0" dir="s" state="M"/>
   </succ>
   <succ edge=":n0_12" lane=":n0_12_0" junction="n0">
      <succlane lane="L10_1" via=":n0_22_0" tl="" linkno="" yield="1" dir="s" state="M"/>
   </succ>
   <succ edge=":n0_22" lane=":n0_22_0" junction=":n0_22">
      <succlane lane="L10_1" tl="" linkno="0" yield="0" dir="s" state="M"/>
   </succ>
   <succ edge=":n0_13" lane=":n0_13_0" junction="n0">
      <succlane lane="U20_1" via=":n0_23_0" tl="" linkno="" yield="1" dir="s" state="M"/>
   </succ>
   <succ edge=":n0_23" lane=":n0_23_0" junction=":n0_23">
      <succlane lane="U20_1" tl="" linkno="0" yield="0" dir="s" state="M"/>
   </succ>
   <succ edge=":n0_14" lane=":n0_14_0" junction="n0">
      <succlane lane="U20_0" tl="" linkno="" yield="0" dir="s" state="M"/>
   </succ>
   <succ edge=":n0_15" lane=":n0_15_0" junction="n0">
      <succlane lane="L30_1" tl="" linkno="" yield="0" dir="s" state="M"/>
   </succ>
   <succ edge=":n0_16" lane=":n0_16_0" junction="n0">
      <succlane lane="D40_1" via=":n0_24_0" tl="" linkno="" yield="1" dir="s" state="M"/>
   </succ>
   <succ edge=":n0_24" lane=":n0_24_0" junction=":n0_24">
      <succlane lane="D40_1" tl="" linkno="0" yield="0" dir="s" state="M"/>
   </succ>
   <succ edge=":n0_17" lane=":n0_17_0" junction="n0">
      <succlane lane="L10_1" via=":n0_25_0" tl="" linkno="" yield="1" dir="s" state="M"/>
   </succ>
   <succ edge=":n0_25" lane=":n0_25_0" junction=":n0_25">
      <succlane lane="L10_1" tl="" linkno="0" yield="0" dir="s" state="M"/>
   </succ>
   <succ edge=":n1_0" lane=":n1_0_0" junction="n1">
      <succlane lane="R10_1" tl="" linkno="" yield="0" dir="s" state="M"/>
   </succ>
   <succ edge=":n2_0" lane=":n2_0_0" junction="n2">
      <succlane lane="D20_1" tl="" linkno="" yield="0" dir="s" state="M"/>
   </succ>
   <succ edge=":n3_0" lane=":n3_0_0" junction="n3">
      <succlane lane="R30_1" tl="" linkno="" yield="0" dir="s" state="M"/>
   </succ>
   <succ edge=":n4_0" lane=":n4_0_0" junction="n4">
      <succlane lane="U40_1" tl="" linkno="" yield="0" dir="s" state="M"/>
   </succ>

</net>
