<nodes>
<node id="n0" x="400" y="300" type="traffic_light"/>
<node id="n1" x="100" y="300" type="priority"/>
<node id="n3" x="700" y="300" type="priority"/>
<node id="n2" x="400" y="100" type="priority"/>
<node id="n4" x="400" y="500" type="priority"/>
</nodes>
