<flows>
<flow id="f0" from="R10" to="L30" begin="0" end="300" no="5" />
<flow id="f1" from="R30" to="L10" begin="0" end="300" no="5" />
</flows>
